final/output/output_current_566.csv
# output/output_current_566.csv run at 2019-09-30 09:26:00 GMT on 1884 links
link_name,currA_mag,currA_angle,currB_mag,currB_angle,currC_mag,currC_angle
Source_Impedance,6.039961,-0.623033,5.003393,3.571102,5.619160,1.634228
TR1,6.039961,-0.623033,5.003393,3.571102,5.619160,1.634228
LINE1,173.838416,-1.093931,145.028239,3.093534,120.472242,1.015838
LINE2,173.838416,-1.093931,145.028239,3.093534,120.472242,1.015838
LINE3,173.838416,-1.093931,145.028239,3.093534,120.472242,1.015838
LINE4,173.838416,-1.093931,145.028239,3.093534,120.472242,1.015838
LINE5,173.838416,-1.093931,145.028239,3.093534,120.472242,1.015838
LINE6,173.838416,-1.093931,145.028239,3.093534,120.472242,1.015838
LINE7,173.838416,-1.093931,145.028239,3.093534,120.472242,1.015838
LINE8,173.838416,-1.093931,145.028239,3.093534,120.472242,1.015838
LINE9,173.838416,-1.093931,145.028239,3.093534,120.472242,1.015838
LINE10,173.838416,-1.093931,145.028239,3.093534,120.472242,1.015838
LINE11,173.838416,-1.093931,145.028239,3.093534,120.472242,1.015838
LINE12,173.838416,-1.093931,145.028239,3.093534,120.472242,1.015838
LINE13,173.838416,-1.093931,145.028239,3.093534,120.472242,1.015838
LINE14,173.838416,-1.093931,145.028239,3.093534,120.472242,1.015838
LINE15,0.000000,-1.067654,0.000000,-0.565351,0.000000,1.568972
LINE16,173.838416,-1.093931,145.028239,3.093534,120.472242,1.015838
LINE17,0.000000,-0.810330,0.000000,-0.346682,0.000000,1.569653
LINE18,173.838416,-1.093931,145.028239,3.093534,120.472242,1.015838
LINE19,0.000000,4.687457,0.000000,-0.190081,0.000000,1.571782
LINE20,173.838416,-1.093931,145.028239,3.093534,120.472242,1.015838
LINE21,0.000000,4.687457,0.000000,-0.149287,0.000000,1.574177
LINE22,173.838416,-1.093931,145.028239,3.093534,120.472242,1.015838
LINE23,0.000000,-0.488580,0.000000,-0.024932,0.000000,1.570078
LINE24,173.838416,-1.093931,145.028239,3.093534,120.472242,1.015838
LINE25,0.000000,-0.612935,0.000000,3.580308,0.000000,1.562990
LINE26,8.198716,-0.994585,2.373876,3.659684,2.364574,1.566537
LINE27,165.682122,-1.098839,143.030423,3.084631,118.463712,1.005392
LINE28,0.000000,-0.719670,0.000000,3.580308,0.000000,1.564612
LINE29,4.108189,-0.995443,1.183756,3.659681,1.179118,1.566534
LINE30,4.090530,-0.993723,1.190119,3.659688,1.185456,1.566541
LINE31,165.682122,-1.098839,143.030423,3.084631,118.463712,1.005392
LINE32,0.000000,-0.316389,0.000000,3.543288,0.000000,1.569298
LINE33,4.108189,-0.995443,1.183756,3.659681,1.179118,1.566534
LINE34,4.090530,-0.993723,1.190119,3.659688,1.185456,1.566541
LINE35,2.384258,-0.525263,8.234427,3.192574,2.366393,1.567446
LINE36,163.684541,-1.106743,134.846839,3.078052,116.468187,0.994564
LINE37,0.000000,-0.346682,0.000000,3.497167,0.000000,1.570924
LINE38,4.090530,-0.993723,1.190119,3.659688,1.185456,1.566541
LINE39,1.187634,-0.525269,4.129808,3.191378,1.178735,1.567440
LINE40,1.196624,-0.525256,4.104625,3.193777,1.187658,1.567453
LINE41,163.684541,-1.106743,134.846839,3.078052,116.468187,0.994564
LINE42,0.000000,1.300730,0.000000,3.879806,0.000000,-0.000813
LINE43,0.000000,-0.488580,0.000000,3.116661,0.000000,1.567736
LINE44,4.090530,-0.993723,1.190119,3.659688,1.185456,1.566541
LINE45,1.187634,-0.525269,4.129808,3.191378,1.178735,1.567440
LINE46,1.196624,-0.525256,4.104625,3.193777,1.187658,1.567453
LINE47,163.684541,-1.106743,134.846839,3.078052,116.468187,0.994564
LINE48,0.000000,1.245602,0.000000,3.559874,0.000000,-1.397647
LINE49,0.000000,-0.269911,0.000000,-0.488580,0.000000,1.563162
LINE50,4.090530,-0.993723,1.190119,3.659688,1.185456,1.566541
LINE51,1.187634,-0.525269,4.129808,3.191378,1.178735,1.567440
LINE52,163.684541,-1.106743,134.846839,3.078052,116.468187,0.994564
LINE53,0.000000,1.070247,0.000000,1.124870,0.000000,1.082862
LINE54,0.000000,1.483795,0.000000,2.736563,0.000000,-1.319816
LINE55,0.000000,-0.488580,0.000000,3.902059,0.000000,1.563441
LINE56,4.090530,-0.993723,1.190119,3.659688,1.185456,1.566541
LINE57,1.187634,-0.525269,4.129808,3.191378,1.178735,1.567440
LINE58,163.684541,-1.106743,134.846839,3.078052,116.468187,0.994564
LINE59,0.000000,1.661751,0.000000,1.177923,0.000000,0.711296
LINE60,0.000000,1.056933,0.000000,3.179866,0.000000,-0.549036
LINE61,0.000000,-0.488580,0.000000,4.687457,0.000000,1.563224
LINE62,4.090530,-0.993723,1.190119,3.659688,1.185456,1.566541
LINE63,1.187634,-0.525269,4.129808,3.191378,1.178735,1.567440
LINE64,155.333427,-1.112851,132.880407,3.068257,114.507228,0.983435
LINE65,8.407710,-0.993662,2.363446,3.661232,2.344596,1.569185
LINE66,0.000000,1.977924,0.000000,0.470166,0.000000,-1.453587
LINE67,0.000000,1.010075,0.000000,3.515307,0.000000,-0.230404
LINE68,0.000000,-0.920987,0.000000,-0.668433,0.000000,1.561488
LINE69,4.090530,-0.993723,1.190119,3.659688,1.185456,1.566541
LINE70,1.187634,-0.525269,4.129808,3.191378,1.178735,1.567440
LINE71,155.333427,-1.112851,132.880407,3.068257,114.507228,0.983435
LINE72,4.219025,-0.995058,1.176337,3.661223,1.166955,1.569177
LINE73,4.188693,-0.992257,1.187109,3.661240,1.177642,1.569193
LINE74,0.000000,1.984595,0.000000,1.545529,0.000000,1.685365
LINE75,0.000000,0.649194,0.000000,3.345523,0.000000,-0.605721
LINE76,0.000000,-1.163320,0.000000,-0.570587,0.000000,1.561805
LINE77,1.187634,-0.525269,4.129808,3.191378,1.178735,1.567440
LINE78,155.333427,-1.112851,132.880407,3.068257,114.507228,0.983435
LINE79,0.000000,2.834328,0.000000,-0.955218,0.000000,4.662738
LINE80,0.000000,0.779248,0.000000,3.440713,0.000000,-0.487057
LINE81,0.000000,-1.034565,0.000000,-0.573481,0.000000,1.558601
LINE82,1.187634,-0.525269,4.129808,3.191378,1.178735,1.567440
LINE83,155.333427,-1.112851,132.880407,3.068257,114.507228,0.983435
LINE84,0.000000,2.217035,0.000000,1.280857,0.000000,0.674712
LINE85,0.000000,0.810831,0.000000,3.465256,0.000000,-0.568335
LINE86,0.000000,-1.148208,0.000000,-0.668433,0.000000,1.558033
LINE87,155.333427,-1.112851,132.880407,3.068257,114.507228,0.983435
LINE88,0.000000,2.939962,0.000000,2.939962,0.000000,-0.144492
LINE89,0.000000,0.825411,0.000000,3.560460,0.000000,-0.628883
LINE90,0.000000,-0.869086,0.000000,-1.007726,0.000000,1.548599
LINE91,155.333427,-1.112851,132.880407,3.068257,114.507228,0.983435
LINE92,0.000000,0.422660,0.000000,3.374779,0.000000,-0.666600
LINE93,0.000000,-0.024932,0.000000,-0.024932,0.000000,1.555630
LINE94,155.333427,-1.112851,132.880407,3.068257,114.507228,0.983435
LINE95,0.000000,0.678387,0.000000,2.938951,0.000000,-0.111496
LINE96,0.000000,3.580308,0.000000,-0.024932,0.000000,4.679645
LINE97,155.333427,-1.112851,132.880407,3.068257,114.507228,0.983435
LINE98,0.000000,0.716903,0.000000,-0.062813,0.000000,0.661772
LINE99,0.000000,3.580308,0.000000,1.545864,0.000000,4.697222
LINE100,155.333427,-1.112851,132.880407,3.068257,114.507228,0.983435
LINE101,0.000000,-0.058304,0.000000,3.670910,0.000000,1.045963
LINE102,0.000000,0.000000,0.000000,0.000000,0.000000,3.116661
LINE103,9.963301,-0.710413,15.800306,3.297913,12.671636,1.273740
LINE104,146.218186,-1.139542,117.549983,3.037654,102.430057,0.948017
LINE105,0.000000,-0.101822,0.000000,3.586893,0.000000,0.838412
LINE106,9.963301,-0.710413,15.800306,3.297913,12.671636,1.273740
LINE107,146.218186,-1.139542,117.549983,3.037654,102.430057,0.948017
LINE108,0.000000,-0.102480,0.000000,3.794583,0.000000,0.787994
LINE109,9.963301,-0.710413,15.800306,3.297913,12.671636,1.273740
LINE110,146.218186,-1.139542,117.549983,3.037654,102.430057,0.948017
LINE111,0.000000,-0.074770,0.000000,3.696579,0.000000,0.912934
LINE112,9.963301,-0.710413,15.800306,3.297913,12.671636,1.273740
LINE113,146.218186,-1.139542,117.549983,3.037654,102.430057,0.948017
LINE114,0.000000,-0.076917,0.000000,3.688153,0.000000,0.911838
LINE115,9.963301,-0.710413,15.800306,3.297913,12.671636,1.273740
LINE116,7.147802,-0.782455,10.186137,3.281456,16.026795,1.092480
LINE117,139.543645,-1.157448,107.693152,3.014820,86.600950,0.921371
LINE118,0.000000,-0.063641,0.000000,3.713722,0.000000,0.913837
LINE119,9.963301,-0.710413,15.800306,3.297913,12.671636,1.273740
LINE120,0.000000,2.832867,0.000000,0.957862,0.000000,1.581656
LINE121,7.147802,-0.782455,10.186137,3.281456,16.026795,1.092480
LINE122,139.543645,-1.157448,107.693152,3.014820,86.600950,0.921371
LINE123,0.000000,-0.095675,0.000000,3.805862,0.000000,1.002176
LINE124,9.963301,-0.710413,15.800306,3.297913,12.671636,1.273740
LINE125,0.000000,2.832867,0.000000,0.925615,0.000000,1.573201
LINE126,7.147802,-0.782455,10.186137,3.281456,16.026795,1.092480
LINE127,139.543645,-1.157448,107.693152,3.014820,86.600950,0.921371
LINE128,0.000000,-0.209772,0.000000,3.836473,0.000000,1.081920
LINE129,9.963301,-0.710413,15.800306,3.297913,12.671636,1.273740
LINE130,0.000000,2.838361,0.000000,0.871123,0.000000,1.553677
LINE131,4.157717,-0.982902,1.216768,3.662387,1.204298,1.571068
LINE132,3.182873,-0.519339,9.067879,3.231548,14.968083,1.055419
LINE133,139.543645,-1.157448,107.693152,3.014820,86.600950,0.921371
LINE134,0.000000,-0.092758,0.000000,3.816552,0.000000,1.083171
LINE135,9.963301,-0.710413,15.800306,3.297913,12.671636,1.273740
LINE136,0.000000,2.825204,0.000000,0.808049,0.000000,1.570599
LINE137,4.157717,-0.982902,1.216768,3.662387,1.204298,1.571068
LINE138,3.182873,-0.519339,9.067879,3.231548,14.968083,1.055419
LINE139,139.543645,-1.157448,107.693152,3.014820,86.600950,0.921371
LINE140,0.000000,-0.083102,0.000000,3.874662,0.000000,1.095112
LINE141,9.963301,-0.710413,15.800306,3.297913,12.671636,1.273740
LINE142,0.000000,2.850409,0.000000,0.837238,0.000000,1.563831
LINE143,4.157717,-0.982902,1.216768,3.662387,1.204298,1.571068
LINE144,3.182873,-0.519339,9.067879,3.231548,14.968083,1.055419
LINE145,139.543645,-1.157448,107.693152,3.014820,86.600950,0.921371
LINE146,0.000000,-0.221595,0.000000,3.458311,0.000000,1.173482
LINE147,9.963301,-0.710413,15.800306,3.297913,12.671636,1.273740
LINE148,0.000000,2.967771,0.000000,0.760466,0.000000,1.564417
LINE149,4.157717,-0.982902,1.216768,3.662387,1.204298,1.571068
LINE150,0.771094,-0.522477,0.767740,3.658214,12.952812,0.964798
LINE151,2.411784,-0.518336,8.374996,3.193602,2.377479,1.571001
LINE152,139.543645,-1.157448,107.693152,3.014820,86.600950,0.921371
LINE153,0.000000,1.626512,0.000000,3.571047,0.000000,1.023974
LINE154,9.963301,-0.710413,15.800306,3.297913,12.671636,1.273740
LINE155,0.000000,3.006004,0.000000,0.871123,0.000000,1.572421
LINE156,4.157717,-0.982902,1.216768,3.662387,1.204298,1.571068
LINE157,0.771094,-0.522477,0.767740,3.658214,12.952812,0.964798
LINE158,2.411784,-0.518336,8.374996,3.193602,2.377479,1.571001
LINE159,139.543645,-1.157448,107.693152,3.014820,86.600950,0.921371
LINE160,0.000000,4.398247,0.000000,-1.060805,0.000000,3.422595
LINE161,1.210502,-0.519692,4.154372,3.195215,1.194829,1.570223
LINE162,8.777748,-0.736558,11.675593,3.334399,11.534221,1.243471
LINE163,0.000000,2.905567,0.000000,0.503143,0.000000,1.575153
LINE164,4.157717,-0.982902,1.216768,3.662387,1.204298,1.571068
LINE165,0.771094,-0.522477,0.767740,3.658214,12.952812,0.964798
LINE166,2.411784,-0.518336,8.374996,3.193602,2.377479,1.571001
LINE167,139.543645,-1.157448,107.693152,3.014820,86.600950,0.921371
LINE168,0.000000,3.707300,0.000000,2.616799,0.000000,2.476595
LINE169,1.210502,-0.519692,4.154372,3.195215,1.194829,1.570223
LINE170,8.777748,-0.736558,11.675593,3.334399,11.534221,1.243471
LINE171,0.000000,2.825204,0.000000,0.669806,0.000000,1.566955
LINE172,4.157717,-0.982902,1.216768,3.662387,1.204298,1.571068
LINE173,0.000000,1.967678,0.000000,3.683603,0.000000,1.369052
LINE174,0.771094,-0.522477,0.767740,3.658214,12.952812,0.964798
LINE175,2.411784,-0.518336,8.374996,3.193602,2.377479,1.571001
LINE176,139.543645,-1.157448,107.693152,3.014820,86.600950,0.921371
LINE177,1.210502,-0.519692,4.154372,3.195215,1.194829,1.570223
LINE178,6.432259,-0.817691,9.421304,3.251850,3.573162,1.570106
LINE179,2.423380,-0.519753,2.414741,3.661931,8.230225,1.103715
LINE180,0.000000,2.421922,0.000000,0.296819,0.000000,1.572225
LINE181,4.157717,-0.982902,1.216768,3.662387,1.204298,1.571068
LINE182,0.000000,1.909196,0.000000,3.647405,0.000000,1.422471
LINE183,0.771094,-0.522477,0.767740,3.658214,12.952812,0.964798
LINE184,2.411784,-0.518336,8.374996,3.193602,2.377479,1.571001
LINE185,139.543645,-1.157448,107.693152,3.014820,86.600950,0.921371
LINE186,6.432259,-0.817691,9.421304,3.251850,3.573162,1.570106
LINE187,2.423380,-0.519753,2.414741,3.661931,8.230225,1.103715
LINE188,0.000000,2.473160,0.000000,1.545864,0.000000,1.557583
LINE189,4.157717,-0.982902,1.216768,3.662387,1.204298,1.571068
LINE190,0.000000,1.114709,0.000000,-0.426113,0.000000,4.620923
LINE191,0.000000,1.809888,0.000000,3.807071,0.000000,1.536474
LINE192,0.771094,-0.522477,0.767740,3.658214,12.952812,0.964798
LINE193,2.411784,-0.518336,8.374996,3.193602,2.377479,1.571001
LINE194,139.543645,-1.157448,107.693152,3.014820,86.600950,0.921371
LINE195,6.432259,-0.817691,9.421304,3.251850,3.573162,1.570106
LINE196,1.201552,-0.519769,1.197269,3.661915,4.143074,1.101045
LINE197,1.221828,-0.519738,1.217472,3.661947,4.087181,1.106422
LINE198,0.000000,2.133867,0.000000,-0.488580,0.000000,3.116661
LINE199,4.157717,-0.982902,1.216768,3.662387,1.204298,1.571068
LINE200,0.000000,-0.371547,0.000000,-0.371547,0.000000,1.135244
LINE201,0.000000,2.054537,0.000000,3.481040,0.000000,1.563782
LINE202,0.771094,-0.522477,0.767740,3.658214,12.952812,0.964798
LINE203,2.411784,-0.518336,8.374996,3.193602,2.377479,1.571001
LINE204,139.543645,-1.157448,107.693152,3.014820,86.600950,0.921371
LINE205,4.184488,-0.987898,1.201120,3.661901,1.189742,1.570132
LINE206,2.414612,-0.519760,8.333524,3.194359,2.383420,1.570093
LINE207,1.201552,-0.519769,1.197269,3.661915,4.143074,1.101045
LINE208,1.221828,-0.519738,1.217472,3.661947,4.087181,1.106422
LINE209,0.000000,3.116661,0.000000,1.545864,0.000000,-0.024932
LINE210,4.157717,-0.982902,1.216768,3.662387,1.204298,1.571068
LINE211,0.000000,2.151925,0.000000,3.292169,0.000000,1.643056
LINE212,0.771094,-0.522477,0.767740,3.658214,12.952812,0.964798
LINE213,2.411784,-0.518336,8.374996,3.193602,2.377479,1.571001
LINE214,139.543645,-1.157448,107.693152,3.014820,86.600950,0.921371
LINE215,4.184488,-0.987898,1.201120,3.661901,1.189742,1.570132
LINE216,2.414612,-0.519760,8.333524,3.194359,2.383420,1.570093
LINE217,1.221828,-0.519738,1.217472,3.661947,4.087181,1.106422
LINE218,0.000000,4.687457,0.000000,0.000000,0.000000,3.116661
LINE219,4.157717,-0.982902,1.216768,3.662387,1.204298,1.571068
LINE220,0.000000,2.491994,0.000000,3.112495,0.000000,1.493920
LINE221,0.771094,-0.522477,0.767740,3.658214,12.952812,0.964798
LINE222,2.411784,-0.518336,8.374996,3.193602,2.377479,1.571001
LINE223,139.543645,-1.157448,107.693152,3.014820,86.600950,0.921371
LINE224,4.184488,-0.987898,1.201120,3.661901,1.189742,1.570132
LINE225,2.414612,-0.519760,8.333524,3.194359,2.383420,1.570093
LINE226,1.221828,-0.519738,1.217472,3.661947,4.087181,1.106422
LINE227,4.157717,-0.982902,1.216768,3.662387,1.204298,1.571068
LINE228,0.000000,2.652820,0.000000,3.059681,0.000000,1.299177
LINE229,0.771094,-0.522477,0.767740,3.658214,12.952812,0.964798
LINE230,2.411784,-0.518336,8.374996,3.193602,2.377479,1.571001
LINE231,139.543645,-1.157448,107.693152,3.014820,86.600950,0.921371
LINE232,2.414612,-0.519760,8.333524,3.194359,2.383420,1.570093
LINE233,0.000000,-0.301150,0.000000,3.625278,0.000000,-0.213768
LINE234,1.221828,-0.519738,1.217472,3.661947,4.087181,1.106422
LINE235,4.157717,-0.982902,1.216768,3.662387,1.204298,1.571068
LINE236,0.000000,2.878160,0.000000,3.324409,0.000000,1.276466
LINE237,0.771094,-0.522477,0.767740,3.658214,12.952812,0.964798
LINE238,2.411784,-0.518336,8.374996,3.193602,2.377479,1.571001
LINE239,139.543645,-1.157448,107.693152,3.014820,86.600950,0.921371
LINE240,2.414612,-0.519760,8.333524,3.194359,2.383420,1.570093
LINE241,1.221828,-0.519738,1.217472,3.661947,4.087181,1.106422
LINE242,4.157717,-0.982902,1.216768,3.662387,1.204298,1.571068
LINE243,0.000000,2.993212,0.000000,3.210102,0.000000,1.050415
LINE244,0.771094,-0.522477,0.767740,3.658214,12.952812,0.964798
LINE245,2.411784,-0.518336,8.374996,3.193602,2.377479,1.571001
LINE246,139.543645,-1.157448,107.693152,3.014820,86.600950,0.921371
LINE247,1.207089,-0.519760,4.167367,3.194302,1.191497,1.570093
LINE248,1.207522,-0.519759,4.166157,3.194416,1.191924,1.570094
LINE249,1.221828,-0.519738,1.217472,3.661947,4.087181,1.106422
LINE250,4.157717,-0.982902,1.216768,3.662387,1.204298,1.571068
LINE251,0.000000,2.737194,0.000000,3.285753,0.000000,1.506505
LINE252,0.771094,-0.522477,0.767740,3.658214,12.952812,0.964798
LINE253,2.411784,-0.518336,8.374996,3.193602,2.377479,1.571001
LINE254,6.549544,-1.120023,0.403243,3.658458,0.397964,1.568172
LINE255,132.998913,-1.159290,107.370863,3.012567,86.283702,0.918592
LINE256,1.221828,-0.519738,1.217472,3.661947,4.087181,1.106422
LINE257,4.157717,-0.982902,1.216768,3.662387,1.204298,1.571068
LINE258,0.000000,2.085893,0.000000,3.464664,0.000000,1.058306
LINE259,0.771094,-0.522477,0.767740,3.658214,12.952812,0.964798
LINE260,2.411784,-0.518336,8.374996,3.193602,2.377479,1.571001
LINE261,6.549544,-1.120023,0.403243,3.658458,0.397964,1.568172
LINE262,132.998913,-1.159290,107.370863,3.012567,86.283702,0.918592
LINE263,1.221828,-0.519738,1.217472,3.661947,4.087181,1.106422
LINE264,4.157717,-0.982902,1.216768,3.662387,1.204298,1.571068
LINE265,0.000000,1.051347,0.000000,3.951769,0.000000,1.312236
LINE266,0.771094,-0.522477,0.767740,3.658214,12.952812,0.964798
LINE267,1.187501,-0.518366,4.239061,3.188863,1.170605,1.570971
LINE268,1.224284,-0.518306,4.136031,3.198459,1.206874,1.571031
LINE269,6.549544,-1.120023,0.403243,3.658458,0.397964,1.568172
LINE270,0.370080,-0.519747,0.368016,3.657893,6.538690,0.963971
LINE271,132.702156,-1.160955,107.077082,3.010499,79.752295,0.914872
LINE272,4.157717,-0.982902,1.216768,3.662387,1.204298,1.571068
LINE273,0.000000,0.387183,0.000000,-1.100877,0.000000,1.069781
LINE274,0.771094,-0.522477,0.767740,3.658214,12.952812,0.964798
LINE275,1.187501,-0.518366,4.239061,3.188863,1.170605,1.570971
LINE276,1.224284,-0.518306,4.136031,3.198459,1.206874,1.571031
LINE277,6.549544,-1.120023,0.403243,3.658458,0.397964,1.568172
LINE278,0.370080,-0.519747,0.368016,3.657893,6.538690,0.963971
LINE279,132.702156,-1.160955,107.077082,3.010499,79.752295,0.914872
LINE280,4.157717,-0.982902,1.216768,3.662387,1.204298,1.571068
LINE281,0.000000,0.118938,0.000000,-1.479242,0.000000,1.284574
LINE282,0.771094,-0.522477,0.767740,3.658214,12.952812,0.964798
LINE283,1.224284,-0.518306,4.136031,3.198459,1.206874,1.571031
LINE284,6.549544,-1.120023,0.403243,3.658458,0.397964,1.568172
LINE285,0.370080,-0.519747,0.368016,3.657893,6.538690,0.963971
LINE286,48.651756,-1.092360,29.615817,3.120050,16.468192,1.104934
LINE287,84.230849,-1.200555,77.706291,2.968818,63.656725,0.865979
LINE288,4.157717,-0.982902,1.216768,3.662387,1.204298,1.571068
LINE289,0.000000,3.106131,0.000000,3.106131,0.000000,3.868680
LINE290,0.408929,-0.522137,0.407155,3.658565,6.409275,0.967355
LINE291,0.362165,-0.522861,0.360585,3.657817,6.543579,0.962292
LINE292,1.224284,-0.518306,4.136031,3.198459,1.206874,1.571031
LINE293,6.549544,-1.120023,0.403243,3.658458,0.397964,1.568172
LINE294,0.370080,-0.519747,0.368016,3.657893,6.538690,0.963971
LINE295,48.651756,-1.092360,29.615817,3.120050,16.468192,1.104934
LINE296,84.230849,-1.200555,77.706291,2.968818,63.656725,0.865979
LINE297,0.408929,-0.522137,0.407155,3.658565,6.409275,0.967355
LINE298,0.362165,-0.522861,0.360585,3.657817,6.543579,0.962292
LINE299,1.224284,-0.518306,4.136031,3.198459,1.206874,1.571031
LINE300,6.549544,-1.120023,0.403243,3.658458,0.397964,1.568172
LINE301,0.370080,-0.519747,0.368016,3.657893,6.538690,0.963971
LINE302,48.651756,-1.092360,29.615817,3.120050,16.468192,1.104934
LINE303,84.230849,-1.200555,77.706291,2.968818,63.656725,0.865979
LINE304,0.408929,-0.522137,0.407155,3.658565,6.409275,0.967355
LINE305,0.362165,-0.522861,0.360585,3.657817,6.543579,0.962292
LINE306,1.224284,-0.518306,4.136031,3.198459,1.206874,1.571031
LINE307,6.549544,-1.120023,0.403243,3.658458,0.397964,1.568172
LINE308,0.370080,-0.519747,0.368016,3.657893,6.538690,0.963971
LINE309,48.651756,-1.092360,29.615817,3.120050,16.468192,1.104934
LINE310,84.230849,-1.200555,77.706291,2.968818,63.656725,0.865979
LINE311,0.408929,-0.522137,0.407155,3.658565,6.409275,0.967355
LINE312,0.362165,-0.522861,0.360585,3.657817,6.543579,0.962292
LINE313,1.224284,-0.518306,4.136031,3.198459,1.206874,1.571031
LINE314,6.549544,-1.120023,0.403243,3.658458,0.397964,1.568172
LINE315,0.370080,-0.519747,0.368016,3.657893,6.538690,0.963971
LINE316,13.332476,-1.121947,0.742412,3.657747,0.731493,1.567903
LINE317,35.327317,-1.081195,28.980661,3.106929,15.817077,1.084278
LINE318,84.230849,-1.200555,77.706291,2.968818,63.656725,0.865979
LINE319,0.408929,-0.522137,0.407155,3.658565,6.409275,0.967355
LINE320,0.362165,-0.522861,0.360585,3.657817,6.543579,0.962292
LINE321,6.549544,-1.120023,0.403243,3.658458,0.397964,1.568172
LINE322,0.370080,-0.519747,0.368016,3.657893,6.538690,0.963971
LINE323,13.332476,-1.121947,0.742412,3.657747,0.731493,1.567903
LINE324,35.327317,-1.081195,28.980661,3.106929,15.817077,1.084278
LINE325,84.230849,-1.200555,77.706291,2.968818,63.656725,0.865979
LINE326,0.362165,-0.522861,0.360585,3.657817,6.543579,0.962292
LINE327,6.549544,-1.120023,0.403243,3.658458,0.397964,1.568172
LINE328,0.370080,-0.519747,0.368016,3.657893,6.538690,0.963971
LINE329,13.332476,-1.121947,0.742412,3.657747,0.731493,1.567903
LINE330,0.377377,-0.518092,0.375120,3.657811,6.524733,0.964846
LINE331,35.008786,-1.086949,28.661707,3.100078,9.371125,1.167331
LINE332,84.230849,-1.200555,77.706291,2.968818,63.656725,0.865979
LINE333,6.549544,-1.120023,0.403243,3.658458,0.397964,1.568172
LINE334,0.370080,-0.519747,0.368016,3.657893,6.538690,0.963971
LINE335,13.332476,-1.121947,0.742412,3.657747,0.731493,1.567903
LINE336,0.377377,-0.518092,0.375120,3.657811,6.524733,0.964846
LINE337,0.360635,-0.517998,6.676349,3.053334,0.352732,1.567535
LINE338,34.705506,-1.092548,21.994864,3.114263,9.047309,1.152141
LINE339,84.230849,-1.200555,77.706291,2.968818,63.656725,0.865979
LINE340,6.549544,-1.120023,0.403243,3.658458,0.397964,1.568172
LINE341,0.370080,-0.519747,0.368016,3.657893,6.538690,0.963971
LINE342,6.590144,-1.119236,0.396910,3.658191,0.391092,1.568327
LINE343,6.742380,-1.124596,0.345502,3.657235,0.340401,1.567416
LINE344,0.360635,-0.517998,6.676349,3.053334,0.352732,1.567535
LINE345,34.705506,-1.092548,21.994864,3.114263,9.047309,1.152141
LINE346,84.230849,-1.200555,77.706291,2.968818,63.656725,0.865979
LINE347,6.549544,-1.120023,0.403243,3.658458,0.397964,1.568172
LINE348,6.590144,-1.119236,0.396910,3.658191,0.391092,1.568327
LINE349,6.742380,-1.124596,0.345502,3.657235,0.340401,1.567416
LINE350,0.360635,-0.517998,6.676349,3.053334,0.352732,1.567535
LINE351,34.705506,-1.092548,21.994864,3.114263,9.047309,1.152141
LINE352,84.230849,-1.200555,77.706291,2.968818,63.656725,0.865979
LINE353,6.549544,-1.120023,0.403243,3.658458,0.397964,1.568172
LINE354,6.742380,-1.124596,0.345502,3.657235,0.340401,1.567416
LINE355,0.360635,-0.517998,6.676349,3.053334,0.352732,1.567535
LINE356,34.705506,-1.092548,21.994864,3.114263,9.047309,1.152141
LINE357,84.230849,-1.200555,77.706291,2.968818,63.656725,0.865979
LINE358,6.549544,-1.120023,0.403243,3.658458,0.397964,1.568172
LINE359,6.742380,-1.124596,0.345502,3.657235,0.340401,1.567416
LINE360,0.360635,-0.517998,6.676349,3.053334,0.352732,1.567535
LINE361,34.705506,-1.092548,21.994864,3.114263,9.047309,1.152141
LINE362,84.230849,-1.200555,77.706291,2.968818,63.656725,0.865979
LINE363,6.549544,-1.120023,0.403243,3.658458,0.397964,1.568172
LINE364,6.742380,-1.124596,0.345502,3.657235,0.340401,1.567416
LINE365,0.360635,-0.517998,6.676349,3.053334,0.352732,1.567535
LINE366,34.705506,-1.092548,21.994864,3.114263,9.047309,1.152141
LINE367,84.230849,-1.200555,77.706291,2.968818,63.656725,0.865979
LINE368,6.549544,-1.120023,0.403243,3.658458,0.397964,1.568172
LINE369,6.742380,-1.124596,0.345502,3.657235,0.340401,1.567416
LINE370,0.360635,-0.517998,6.676349,3.053334,0.352732,1.567535
LINE371,34.705506,-1.092548,21.994864,3.114263,9.047309,1.152141
LINE372,84.230849,-1.200555,77.706291,2.968818,63.656725,0.865979
LINE373,6.549544,-1.120023,0.403243,3.658458,0.397964,1.568172
LINE374,6.742380,-1.124596,0.345502,3.657235,0.340401,1.567416
LINE375,0.360635,-0.517998,6.676349,3.053334,0.352732,1.567535
LINE376,34.705506,-1.092548,21.994864,3.114263,9.047309,1.152141
LINE377,83.952606,-1.203245,77.431381,2.965890,57.111770,0.854800
LINE378,0.358639,-0.519137,0.356592,3.657841,6.579573,0.963168
LINE379,6.549544,-1.120023,0.403243,3.658458,0.397964,1.568172
LINE380,6.742380,-1.124596,0.345502,3.657235,0.340401,1.567416
LINE381,0.360635,-0.517998,6.676349,3.053334,0.352732,1.567535
LINE382,34.705506,-1.092548,21.994864,3.114263,9.047309,1.152141
LINE383,83.952606,-1.203245,77.431381,2.965890,57.111770,0.854800
LINE384,0.358639,-0.519137,0.356592,3.657841,6.579573,0.963168
LINE385,0.000000,2.759750,0.000000,0.680217,0.000000,-1.544114
LINE386,6.549544,-1.120023,0.403243,3.658458,0.397964,1.568172
LINE387,6.742380,-1.124596,0.345502,3.657235,0.340401,1.567416
LINE388,0.360635,-0.517998,6.676349,3.053334,0.352732,1.567535
LINE389,34.705506,-1.092548,21.994864,3.114263,9.047309,1.152141
LINE390,83.952606,-1.203245,77.431381,2.965890,57.111770,0.854800
LINE391,0.358639,-0.519137,0.356592,3.657841,6.579573,0.963168
LINE392,0.000000,2.731860,0.000000,0.679333,0.000000,-1.541331
LINE393,0.360635,-0.517998,6.676349,3.053334,0.352732,1.567535
LINE394,34.705506,-1.092548,21.994864,3.114263,9.047309,1.152141
LINE395,0.750381,-0.518404,0.746138,3.658302,13.073439,0.965136
LINE396,83.372773,-1.208939,76.858548,2.959693,44.141310,0.822181
LINE397,0.358639,-0.519137,0.356592,3.657841,6.579573,0.963168
LINE398,0.000000,2.540328,0.000000,0.567671,0.000000,-1.546067
LINE399,0.360635,-0.517998,6.676349,3.053334,0.352732,1.567535
LINE400,34.705506,-1.092548,21.994864,3.114263,9.047309,1.152141
LINE401,0.750381,-0.518404,0.746138,3.658302,13.073439,0.965136
LINE402,83.372773,-1.208939,76.858548,2.959693,44.141310,0.822181
LINE403,0.358639,-0.519137,0.356592,3.657841,6.579573,0.963168
LINE404,0.000000,3.417164,0.000000,0.055190,0.000000,-1.553827
LINE405,0.360635,-0.517998,6.676349,3.053334,0.352732,1.567535
LINE406,34.705506,-1.092548,21.994864,3.114263,9.047309,1.152141
LINE407,0.750381,-0.518404,0.746138,3.658302,13.073439,0.965136
LINE408,83.372773,-1.208939,76.858548,2.959693,44.141310,0.822181
LINE409,0.000000,-0.064900,0.000000,3.550447,0.000000,1.507889
LINE410,0.358639,-0.519137,0.356592,3.657841,6.579573,0.963168
LINE411,0.000000,0.755226,0.000000,0.450545,0.000000,4.708588
LINE412,34.705506,-1.092548,21.994864,3.114263,9.047309,1.152141
LINE413,0.750381,-0.518404,0.746138,3.658302,13.073439,0.965136
LINE414,83.372773,-1.208939,76.858548,2.959693,44.141310,0.822181
LINE415,0.000000,-0.085898,0.000000,3.568204,0.000000,1.538351
LINE416,0.358639,-0.519137,0.356592,3.657841,6.579573,0.963168
LINE417,0.000000,-0.860298,0.000000,0.190696,0.000000,-1.544767
LINE418,34.705506,-1.092548,21.994864,3.114263,9.047309,1.152141
LINE419,0.750381,-0.518404,0.746138,3.658302,13.073439,0.965136
LINE420,83.372773,-1.208939,76.858548,2.959693,44.141310,0.822181
LINE421,0.000000,-0.116629,0.000000,3.484454,0.000000,1.541712
LINE422,0.358639,-0.519137,0.356592,3.657841,6.579573,0.963168
LINE423,0.000000,4.674138,0.000000,0.185716,0.000000,-1.559414
LINE424,34.705506,-1.092548,21.994864,3.114263,9.047309,1.152141
LINE425,0.000000,-0.578128,0.000000,3.793975,0.000000,1.815179
LINE426,0.750381,-0.518404,0.746138,3.658302,13.073439,0.965136
LINE427,83.372773,-1.208939,76.858548,2.959693,44.141310,0.822181
LINE428,0.000000,-0.275940,0.000000,3.453027,0.000000,1.490710
LINE429,0.358639,-0.519137,0.356592,3.657841,6.579573,0.963168
LINE430,0.000000,-1.426461,0.000000,0.185738,0.000000,-1.552936
LINE431,34.705506,-1.092548,21.994864,3.114263,9.047309,1.152141
LINE432,0.000000,3.648330,0.000000,-1.062565,0.000000,1.631089
LINE433,0.750381,-0.518404,0.746138,3.658302,13.073439,0.965136
LINE434,83.372773,-1.208939,76.858548,2.959693,44.141310,0.822181
LINE435,0.000000,-0.124101,0.000000,3.393864,0.000000,1.555707
LINE436,0.358639,-0.519137,0.356592,3.657841,6.579573,0.963168
LINE437,0.000000,4.528652,0.000000,0.011921,0.000000,4.692364
LINE438,34.705506,-1.092548,21.994864,3.114263,9.047309,1.152141
LINE439,0.000000,-1.537963,0.000000,0.634944,0.000000,4.193605
LINE440,0.750381,-0.518404,0.746138,3.658302,13.073439,0.965136
LINE441,83.372773,-1.208939,76.858548,2.959693,44.141310,0.822181
LINE442,0.000000,-0.052510,0.000000,3.288601,0.000000,1.555387
LINE443,0.358639,-0.519137,0.356592,3.657841,6.579573,0.963168
LINE444,0.000000,-0.951635,0.000000,0.045311,0.000000,4.680408
LINE445,34.705506,-1.092548,21.994864,3.114263,9.047309,1.152141
LINE446,0.000000,0.436305,0.000000,-1.562641,0.000000,4.497637
LINE447,0.750381,-0.518404,0.746138,3.658302,13.073439,0.965136
LINE448,83.372773,-1.208939,76.858548,2.959693,44.141310,0.822181
LINE449,0.000000,0.073112,0.000000,3.148658,0.000000,1.624397
LINE450,0.358639,-0.519137,0.356592,3.657841,6.579573,0.963168
LINE451,0.000000,-1.211284,0.000000,-0.008414,0.000000,4.676979
LINE452,34.705506,-1.092548,21.994864,3.114263,9.047309,1.152141
LINE453,0.000000,-0.201681,0.000000,-0.201681,0.000000,2.996186
LINE454,0.750381,-0.518404,0.746138,3.658302,13.073439,0.965136
LINE455,83.372773,-1.208939,76.858548,2.959693,44.141310,0.822181
LINE456,0.000000,-0.053311,0.000000,3.067045,0.000000,1.408315
LINE457,0.358639,-0.519137,0.356592,3.657841,6.579573,0.963168
LINE458,0.000000,-0.858156,0.000000,0.066678,0.000000,4.669518
LINE459,27.997576,-1.086134,21.680180,3.105485,8.717813,1.135405
LINE460,0.000000,1.563526,0.000000,4.400528,0.000000,-0.145406
LINE461,6.710910,-1.119310,0.368468,3.656994,0.361466,1.567598
LINE462,0.750381,-0.518404,0.746138,3.658302,13.073439,0.965136
LINE463,83.372773,-1.208939,76.858548,2.959693,44.141310,0.822181
LINE464,0.000000,-0.022719,0.000000,3.646296,0.000000,1.365747
LINE465,0.000000,-1.405144,0.000000,0.056166,0.000000,4.670135
LINE466,27.997576,-1.086134,21.680180,3.105485,8.717813,1.135405
LINE467,0.000000,4.367298,0.000000,1.490906,0.000000,-1.493202
LINE468,0.000000,2.353989,0.000000,3.348261,0.000000,-1.354638
LINE469,6.710910,-1.119310,0.368468,3.656994,0.361466,1.567598
LINE470,0.750381,-0.518404,0.746138,3.658302,13.073439,0.965136
LINE471,83.372773,-1.208939,76.858548,2.959693,44.141310,0.822181
LINE472,0.000000,0.172661,0.000000,3.657284,0.000000,1.486148
LINE473,0.000000,4.710005,0.000000,0.077632,0.000000,4.676250
LINE474,27.997576,-1.086134,21.680180,3.105485,8.717813,1.135405
LINE475,0.000000,0.475715,0.000000,-0.155004,0.000000,1.292654
LINE476,6.710910,-1.119310,0.368468,3.656994,0.361466,1.567598
LINE477,0.750381,-0.518404,0.746138,3.658302,13.073439,0.965136
LINE478,83.372773,-1.208939,76.858548,2.959693,44.141310,0.822181
LINE479,0.000000,0.118805,0.000000,-0.813560,0.000000,1.521641
LINE480,0.000000,4.594385,0.000000,-0.051971,0.000000,4.667937
LINE481,14.598113,-1.056828,21.047856,3.086896,8.059137,1.097363
LINE482,0.000000,3.867959,0.000000,-0.372761,0.000000,0.683506
LINE483,13.412554,-1.118031,0.746664,3.656992,0.731793,1.567588
LINE484,6.710910,-1.119310,0.368468,3.656994,0.361466,1.567598
LINE485,0.750381,-0.518404,0.746138,3.658302,13.073439,0.965136
LINE486,83.372773,-1.208939,76.858548,2.959693,44.141310,0.822181
LINE487,0.000000,0.401926,0.000000,-1.298610,0.000000,1.477894
LINE488,0.000000,-0.852741,0.000000,4.624826,0.000000,2.711044
LINE489,14.598113,-1.056828,21.047856,3.086896,8.059137,1.097363
LINE490,0.000000,-0.201681,0.000000,-0.201681,0.000000,2.996186
LINE491,6.671201,-1.116792,0.385189,3.657214,0.377529,1.567799
LINE492,6.741363,-1.119257,0.361476,3.656754,0.354264,1.567364
LINE493,6.710910,-1.119310,0.368468,3.656994,0.361466,1.567598
LINE494,0.750381,-0.518404,0.746138,3.658302,13.073439,0.965136
LINE495,83.372773,-1.208939,76.858548,2.959693,44.141310,0.822181
LINE496,0.000000,0.727301,0.000000,-1.182507,0.000000,1.524302
LINE497,0.000000,1.494051,0.000000,1.413409,0.000000,4.634337
LINE498,14.598113,-1.056828,21.047856,3.086896,8.059137,1.097363
LINE499,0.000000,2.184542,0.000000,3.381372,0.000000,3.703003
LINE500,6.671201,-1.116792,0.385189,3.657214,0.377529,1.567799
LINE501,6.741363,-1.119257,0.361476,3.656754,0.354264,1.567364
LINE502,6.710910,-1.119310,0.368468,3.656994,0.361466,1.567598
LINE503,0.750381,-0.518404,0.746138,3.658302,13.073439,0.965136
LINE504,83.372773,-1.208939,76.858548,2.959693,44.141310,0.822181
LINE505,0.000000,0.687608,0.000000,0.156868,0.000000,1.539184
LINE506,0.000000,-0.149575,0.000000,-0.149575,0.000000,3.066247
LINE507,14.598113,-1.056828,21.047856,3.086896,8.059137,1.097363
LINE508,0.000000,-0.741459,0.000000,4.067342,0.000000,1.562462
LINE509,6.671201,-1.116792,0.385189,3.657214,0.377529,1.567799
LINE510,6.710910,-1.119310,0.368468,3.656994,0.361466,1.567598
LINE511,0.750381,-0.518404,0.746138,3.658302,13.073439,0.965136
LINE512,0.336182,-0.517188,6.762377,3.051686,0.328643,1.567613
LINE513,83.114145,-1.211519,70.127516,2.950834,43.900390,0.817104
LINE514,0.000000,0.737398,0.000000,0.117795,0.000000,1.561157
LINE515,1.521574,-0.514626,20.394372,3.066189,7.384822,1.050366
LINE516,0.000000,-0.412153,0.000000,4.059256,0.000000,1.889704
LINE517,13.317937,-1.115817,0.781726,3.657560,0.765590,1.567672
LINE518,6.671201,-1.116792,0.385189,3.657214,0.377529,1.567799
LINE519,6.710910,-1.119310,0.368468,3.656994,0.361466,1.567598
LINE520,0.750381,-0.518404,0.746138,3.658302,13.073439,0.965136
LINE521,0.336182,-0.517188,6.762377,3.051686,0.328643,1.567613
LINE522,83.114145,-1.211519,70.127516,2.950834,43.900390,0.817104
LINE523,0.000000,0.154805,0.000000,3.718106,0.000000,1.425305
LINE524,1.521574,-0.514626,20.394372,3.066189,7.384822,1.050366
LINE525,0.000000,2.665722,0.000000,0.429828,0.000000,4.505957
LINE526,13.317937,-1.115817,0.781726,3.657560,0.765590,1.567672
LINE527,6.671201,-1.116792,0.385189,3.657214,0.377529,1.567799
LINE528,6.710910,-1.119310,0.368468,3.656994,0.361466,1.567598
LINE529,0.750381,-0.518404,0.746138,3.658302,13.073439,0.965136
LINE530,83.114145,-1.211519,70.127516,2.950834,43.900390,0.817104
LINE531,0.000000,0.246064,0.000000,3.316493,0.000000,1.505511
LINE532,1.521574,-0.514626,20.394372,3.066189,7.384822,1.050366
LINE533,0.000000,4.628664,0.000000,4.628664,0.000000,4.700515
LINE534,13.317937,-1.115817,0.781726,3.657560,0.765590,1.567672
LINE535,6.671201,-1.116792,0.385189,3.657214,0.377529,1.567799
LINE536,6.710910,-1.119310,0.368468,3.656994,0.361466,1.567598
LINE537,0.352172,-0.518830,0.350174,3.657856,6.603337,0.962781
LINE538,0.398209,-0.518027,0.395964,3.658696,6.470139,0.967540
LINE539,83.114145,-1.211519,70.127516,2.950834,43.900390,0.817104
LINE540,0.000000,0.780064,0.000000,2.948480,0.000000,1.211497
LINE541,1.521574,-0.514626,20.394372,3.066189,7.384822,1.050366
LINE542,0.000000,4.685663,0.000000,-0.201681,0.000000,1.826279
LINE543,13.317937,-1.115817,0.781726,3.657560,0.765590,1.567672
LINE544,6.671201,-1.116792,0.385189,3.657214,0.377529,1.567799
LINE545,6.710910,-1.119310,0.368468,3.656994,0.361466,1.567598
LINE546,0.352172,-0.518830,0.350174,3.657856,6.603337,0.962781
LINE547,83.114145,-1.211519,70.127516,2.950834,43.900390,0.817104
LINE548,0.000000,1.115052,0.000000,2.053596,0.000000,0.870406
LINE549,1.521574,-0.514626,20.394372,3.066189,7.384822,1.050366
LINE550,0.000000,4.502056,0.000000,2.909798,0.000000,2.592627
LINE551,6.597740,-1.113592,0.411642,3.657910,0.403166,1.568005
LINE552,6.720229,-1.118002,0.370085,3.657170,0.362425,1.567302
LINE553,6.671201,-1.116792,0.385189,3.657214,0.377529,1.567799
LINE554,6.710910,-1.119310,0.368468,3.656994,0.361466,1.567598
LINE555,0.352172,-0.518830,0.350174,3.657856,6.603337,0.962781
LINE556,83.114145,-1.211519,70.127516,2.950834,43.900390,0.817104
LINE557,0.000000,1.146853,0.000000,0.122459,0.000000,3.725987
LINE558,1.521574,-0.514626,20.394372,3.066189,7.384822,1.050366
LINE559,0.000000,1.501212,0.000000,4.515917,0.000000,1.444744
LINE560,6.597740,-1.113592,0.411642,3.657910,0.403166,1.568005
LINE561,6.720229,-1.118002,0.370085,3.657170,0.362425,1.567302
LINE562,6.671201,-1.116792,0.385189,3.657214,0.377529,1.567799
LINE563,6.710910,-1.119310,0.368468,3.656994,0.361466,1.567598
LINE564,83.114145,-1.211519,70.127516,2.950834,43.900390,0.817104
LINE565,0.000000,3.726017,0.000000,2.965808,0.000000,-1.529329
LINE566,0.771592,-0.514549,7.035598,3.086933,6.759278,0.996947
LINE567,0.000000,2.939912,0.000000,2.939912,0.000000,-0.145406
LINE568,0.749982,-0.514706,13.361085,3.055266,0.730557,1.567065
LINE569,6.597740,-1.113592,0.411642,3.657910,0.403166,1.568005
LINE570,6.710910,-1.119310,0.368468,3.656994,0.361466,1.567598
LINE571,83.114145,-1.211519,70.127516,2.950834,43.900390,0.817104
LINE572,0.771592,-0.514549,7.035598,3.086933,6.759278,0.996947
LINE573,0.000000,4.234466,0.000000,1.479425,0.000000,1.451298
LINE574,0.749982,-0.514706,13.361085,3.055266,0.730557,1.567065
LINE575,6.597740,-1.113592,0.411642,3.657910,0.403166,1.568005
LINE576,6.710910,-1.119310,0.368468,3.656994,0.361466,1.567598
LINE577,83.114145,-1.211519,70.127516,2.950834,43.900390,0.817104
LINE578,0.771592,-0.514549,7.035598,3.086933,6.759278,0.996947
LINE579,0.000000,1.045023,0.000000,4.668517,0.000000,2.232776
LINE580,0.000000,4.288214,0.000000,3.207462,0.000000,1.624369
LINE581,0.749982,-0.514706,13.361085,3.055266,0.730557,1.567065
LINE582,6.597740,-1.113592,0.411642,3.657910,0.403166,1.568005
LINE583,6.710910,-1.119310,0.368468,3.656994,0.361466,1.567598
LINE584,0.669936,2.635511,12.201328,2.989702,0.655995,-1.562942
LINE585,83.625315,-1.206325,57.937343,2.942651,44.377488,0.827304
LINE586,0.771592,-0.514549,7.035598,3.086933,6.759278,0.996947
LINE587,0.000000,0.820733,0.000000,0.820733,0.000000,4.465713
LINE588,0.000000,4.506933,0.000000,3.307132,0.000000,1.623833
LINE589,0.749982,-0.514706,13.361085,3.055266,0.730557,1.567065
LINE590,6.597740,-1.113592,0.411642,3.657910,0.403166,1.568005
LINE591,6.710910,-1.119310,0.368468,3.656994,0.361466,1.567598
LINE592,0.669936,2.635511,12.201328,2.989702,0.655995,-1.562942
LINE593,83.625315,-1.206325,57.937343,2.942651,44.377488,0.827304
LINE594,0.367523,-0.514852,6.700894,3.054472,0.358099,1.566846
LINE595,0.404069,-0.514272,0.402119,3.658361,6.460664,0.967036
LINE596,0.000000,-0.468349,0.000000,3.241352,0.000000,1.624678
LINE597,0.749982,-0.514706,13.361085,3.055266,0.730557,1.567065
LINE598,6.597740,-1.113592,0.411642,3.657910,0.403166,1.568005
LINE599,6.710910,-1.119310,0.368468,3.656994,0.361466,1.567598
LINE600,0.669936,2.635511,12.201328,2.989702,0.655995,-1.562942
LINE601,0.344346,-0.516495,0.342506,3.658173,6.630184,0.962007
LINE602,83.359990,-1.208954,57.679274,2.938756,37.817849,0.803757
LINE603,0.367523,-0.514852,6.700894,3.054472,0.358099,1.566846
LINE604,0.000000,1.271473,0.000000,1.271473,0.000000,3.941486
LINE605,0.000000,3.875747,0.000000,2.948872,0.000000,2.844259
LINE606,0.404069,-0.514272,0.402119,3.658361,6.460664,0.967036
LINE607,0.000000,1.475854,0.000000,1.475854,0.000000,4.691676
LINE608,0.000000,-0.709166,0.000000,3.339208,0.000000,1.713545
LINE609,0.749982,-0.514706,13.361085,3.055266,0.730557,1.567065
LINE610,6.597740,-1.113592,0.411642,3.657910,0.403166,1.568005
LINE611,6.710910,-1.119310,0.368468,3.656994,0.361466,1.567598
LINE612,0.669936,2.635511,12.201328,2.989702,0.655995,-1.562942
LINE613,0.344346,-0.516495,0.342506,3.658173,6.630184,0.962007
LINE614,83.359990,-1.208954,57.679274,2.938756,37.817849,0.803757
LINE615,0.367523,-0.514852,6.700894,3.054472,0.358099,1.566846
LINE616,0.000000,-0.201681,0.000000,-0.201681,0.000000,2.996186
LINE617,0.000000,-1.458952,0.000000,1.167164,0.000000,2.189225
LINE618,0.404069,-0.514272,0.402119,3.658361,6.460664,0.967036
LINE619,0.000000,3.563485,0.000000,3.391179,0.000000,1.552106
LINE620,0.749982,-0.514706,13.361085,3.055266,0.730557,1.567065
LINE621,6.710910,-1.119310,0.368468,3.656994,0.361466,1.567598
LINE622,0.669936,2.635511,12.201328,2.989702,0.655995,-1.562942
LINE623,0.360453,-0.515498,6.703829,3.054178,0.351802,1.568432
LINE624,83.083106,-1.211727,51.025892,2.923624,37.564775,0.797274
LINE625,0.367523,-0.514852,6.700894,3.054472,0.358099,1.566846
LINE626,0.000000,-0.514212,0.000000,3.596854,0.000000,1.600597
LINE627,0.749982,-0.514706,13.361085,3.055266,0.730557,1.567065
LINE628,6.710910,-1.119310,0.368468,3.656994,0.361466,1.567598
LINE629,0.669936,2.635511,12.201328,2.989702,0.655995,-1.562942
LINE630,0.360453,-0.515498,6.703829,3.054178,0.351802,1.568432
LINE631,83.083106,-1.211727,51.025892,2.923624,37.564775,0.797274
LINE632,0.367523,-0.514852,6.700894,3.054472,0.358099,1.566846
LINE633,0.000000,0.846509,0.000000,3.354198,0.000000,1.674216
LINE634,0.749982,-0.514706,13.361085,3.055266,0.730557,1.567065
LINE635,0.669936,2.635511,12.201328,2.989702,0.655995,-1.562942
LINE636,0.360453,-0.515498,6.703829,3.054178,0.351802,1.568432
LINE637,83.083106,-1.211727,51.025892,2.923624,37.564775,0.797274
LINE638,0.367523,-0.514852,6.700894,3.054472,0.358099,1.566846
LINE639,0.000000,2.225653,0.000000,4.175828,0.000000,1.942777
LINE640,0.749982,-0.514706,13.361085,3.055266,0.730557,1.567065
LINE641,0.669936,2.635511,12.201328,2.989702,0.655995,-1.562942
LINE642,0.360453,-0.515498,6.703829,3.054178,0.351802,1.568432
LINE643,83.083106,-1.211727,51.025892,2.923624,37.564775,0.797274
LINE644,0.000000,2.203143,0.000000,3.841749,0.000000,2.461373
LINE645,0.749982,-0.514706,13.361085,3.055266,0.730557,1.567065
LINE646,0.669936,2.635511,12.201328,2.989702,0.655995,-1.562942
LINE647,0.360453,-0.515498,6.703829,3.054178,0.351802,1.568432
LINE648,83.083106,-1.211727,51.025892,2.923624,37.564775,0.797274
LINE649,0.000000,4.277331,0.000000,0.624747,0.000000,4.489564
LINE650,0.749982,-0.514706,13.361085,3.055266,0.730557,1.567065
LINE651,0.669936,2.635511,12.201328,2.989702,0.655995,-1.562942
LINE652,0.360453,-0.515498,6.703829,3.054178,0.351802,1.568432
LINE653,83.083106,-1.211727,51.025892,2.923624,37.564775,0.797274
LINE654,0.000000,3.716324,0.000000,0.154219,0.000000,1.547936
LINE655,0.367398,-0.514846,6.702773,3.054484,0.357872,1.566921
LINE656,0.382584,-0.514570,6.658316,3.056052,0.372685,1.567203
LINE657,0.669936,2.635511,12.201328,2.989702,0.655995,-1.562942
LINE658,0.360453,-0.515498,6.703829,3.054178,0.351802,1.568432
LINE659,83.083106,-1.211727,51.025892,2.923624,37.564775,0.797274
LINE660,0.000000,3.059945,0.000000,3.337088,0.000000,0.942114
LINE661,0.367398,-0.514846,6.702773,3.054484,0.357872,1.566921
LINE662,0.382584,-0.514570,6.658316,3.056052,0.372685,1.567203
LINE663,0.669936,2.635511,12.201328,2.989702,0.655995,-1.562942
LINE664,0.360453,-0.515498,6.703829,3.054178,0.351802,1.568432
LINE665,83.083106,-1.211727,51.025892,2.923624,37.564775,0.797274
LINE666,0.000000,1.827522,0.000000,-0.536342,0.000000,0.940987
LINE667,0.367398,-0.514846,6.702773,3.054484,0.357872,1.566921
LINE668,0.382584,-0.514570,6.658316,3.056052,0.372685,1.567203
LINE669,0.669936,2.635511,12.201328,2.989702,0.655995,-1.562942
LINE670,0.360453,-0.515498,6.703829,3.054178,0.351802,1.568432
LINE671,36.435330,-1.183609,2.002395,0.527874,1.967698,-1.562507
LINE672,46.673421,-1.233676,52.514267,2.949502,38.985787,0.832842
LINE673,0.000000,1.587776,0.000000,4.295065,0.000000,1.356545
LINE674,0.367398,-0.514846,6.702773,3.054484,0.357872,1.566921
LINE675,0.382584,-0.514570,6.658316,3.056052,0.372685,1.567203
LINE676,0.669936,2.635511,12.201328,2.989702,0.655995,-1.562942
LINE677,0.360453,-0.515498,6.703829,3.054178,0.351802,1.568432
LINE678,36.435330,-1.183609,2.002395,0.527874,1.967698,-1.562507
LINE679,46.673421,-1.233676,52.514267,2.949502,38.985787,0.832842
LINE680,0.000000,4.455810,0.000000,1.846192,0.000000,-1.201157
LINE681,0.367398,-0.514846,6.702773,3.054484,0.357872,1.566921
LINE682,0.669936,2.635511,12.201328,2.989702,0.655995,-1.562942
LINE683,0.360453,-0.515498,6.703829,3.054178,0.351802,1.568432
LINE684,36.435330,-1.183609,2.002395,0.527874,1.967698,-1.562507
LINE685,46.673421,-1.233676,52.514267,2.949502,38.985787,0.832842
LINE686,0.669936,2.635511,12.201328,2.989702,0.655995,-1.562942
LINE687,0.360453,-0.515498,6.703829,3.054178,0.351802,1.568432
LINE688,36.435330,-1.183609,2.002395,0.527874,1.967698,-1.562507
LINE689,0.296866,2.649793,0.295534,0.541793,18.422941,0.922869
LINE690,46.892700,-1.229398,52.734096,2.953256,20.703813,0.752756
LINE691,0.669936,2.635511,12.201328,2.989702,0.655995,-1.562942
LINE692,36.435330,-1.183609,2.002395,0.527874,1.967698,-1.562507
LINE693,0.671308,2.636995,0.667915,0.528185,11.881185,0.899271
LINE694,0.374486,-0.514744,0.372430,3.658979,6.551066,0.965677
LINE695,0.415988,-0.513539,6.555053,3.060448,0.405734,1.569441
LINE696,46.579625,-1.235259,46.221987,2.938082,20.428172,0.738279
LINE697,0.669936,2.635511,12.201328,2.989702,0.655995,-1.562942
LINE698,36.435330,-1.183609,2.002395,0.527874,1.967698,-1.562507
LINE699,0.671308,2.636995,0.667915,0.528185,11.881185,0.899271
LINE700,0.374486,-0.514744,0.372430,3.658979,6.551066,0.965677
LINE701,0.415988,-0.513539,6.555053,3.060448,0.405734,1.569441
LINE702,46.579625,-1.235259,46.221987,2.938082,20.428172,0.738279
LINE703,0.669936,2.635511,12.201328,2.989702,0.655995,-1.562942
LINE704,36.435330,-1.183609,2.002395,0.527874,1.967698,-1.562507
LINE705,0.671308,2.636995,0.667915,0.528185,11.881185,0.899271
LINE706,46.579625,-1.235259,46.221987,2.938082,20.428172,0.738279
LINE707,0.000000,-0.280693,0.000000,1.157224,0.000000,-0.691736
LINE708,0.669936,2.635511,12.201328,2.989702,0.655995,-1.562942
LINE709,36.435330,-1.183609,2.002395,0.527874,1.967698,-1.562507
LINE710,0.671308,2.636995,0.667915,0.528185,11.881185,0.899271
LINE711,21.808847,-1.296073,47.225861,2.957029,21.325675,0.784153
LINE712,24.846473,-1.181888,1.338403,0.528668,1.312303,-1.562449
LINE713,0.000000,-0.156123,0.000000,0.780071,0.000000,-0.791757
LINE714,0.669936,2.635511,12.201328,2.989702,0.655995,-1.562942
LINE715,36.435330,-1.183609,2.002395,0.527874,1.967698,-1.562507
LINE716,0.671308,2.636995,0.667915,0.528185,11.881185,0.899271
LINE717,21.808847,-1.296073,47.225861,2.957029,21.325675,0.784153
LINE718,24.846473,-1.181888,1.338403,0.528668,1.312303,-1.562449
LINE719,0.000000,0.071887,0.000000,0.615953,0.000000,-0.555010
LINE720,0.669936,2.635511,12.201328,2.989702,0.655995,-1.562942
LINE721,36.435330,-1.183609,2.002395,0.527874,1.967698,-1.562507
LINE722,0.671308,2.636995,0.667915,0.528185,11.881185,0.899271
LINE723,22.771667,-1.253988,22.771515,2.919534,22.265166,0.826254
LINE724,1.344058,2.639025,24.485235,2.991899,1.313071,-1.562694
LINE725,24.846473,-1.181888,1.338403,0.528668,1.312303,-1.562449
LINE726,0.000000,-0.144677,0.000000,0.835879,0.000000,-0.286492
LINE727,0.669936,2.635511,12.201328,2.989702,0.655995,-1.562942
LINE728,36.435330,-1.183609,2.002395,0.527874,1.967698,-1.562507
LINE729,0.671308,2.636995,0.667915,0.528185,11.881185,0.899271
LINE730,22.771667,-1.253988,22.771515,2.919534,22.265166,0.826254
LINE731,1.344058,2.639025,24.485235,2.991899,1.313071,-1.562694
LINE732,24.846473,-1.181888,1.338403,0.528668,1.312303,-1.562449
LINE733,0.000000,0.353528,0.000000,0.934366,0.000000,-0.421279
LINE734,0.669936,2.635511,12.201328,2.989702,0.655995,-1.562942
LINE735,36.435330,-1.183609,2.002395,0.527874,1.967698,-1.562507
LINE736,0.671308,2.636995,0.667915,0.528185,11.881185,0.899271
LINE737,22.771667,-1.253988,22.771515,2.919534,22.265166,0.826254
LINE738,1.344058,2.639025,24.485235,2.991899,1.313071,-1.562694
LINE739,24.846473,-1.181888,1.338403,0.528668,1.312303,-1.562449
LINE740,0.000000,0.173252,0.000000,0.596424,0.000000,0.387265
LINE741,0.669936,2.635511,12.201328,2.989702,0.655995,-1.562942
LINE742,36.435330,-1.183609,2.002395,0.527874,1.967698,-1.562507
LINE743,0.671308,2.636995,0.667915,0.528185,11.881185,0.899271
LINE744,22.771667,-1.253988,22.771515,2.919534,22.265166,0.826254
LINE745,0.672028,2.639025,12.410004,2.992363,0.656534,-1.562694
LINE746,0.672030,2.639024,12.075234,2.991421,0.656536,-1.562693
LINE747,24.846473,-1.181888,1.338403,0.528668,1.312303,-1.562449
LINE748,0.000000,0.594191,0.000000,0.603739,0.000000,0.724183
LINE749,0.669936,2.635511,12.201328,2.989702,0.655995,-1.562942
LINE750,36.435330,-1.183609,2.002395,0.527874,1.967698,-1.562507
LINE751,0.671308,2.636995,0.667915,0.528185,11.881185,0.899271
LINE752,23.771832,-1.215339,23.768656,2.958105,2.625852,-1.562950
LINE753,1.344930,2.639412,1.341430,0.530177,24.248682,0.900325
LINE754,0.672028,2.639025,12.410004,2.992363,0.656534,-1.562694
LINE755,0.672030,2.639024,12.075234,2.991421,0.656536,-1.562693
LINE756,24.846473,-1.181888,1.338403,0.528668,1.312303,-1.562449
LINE757,0.000000,1.056781,0.000000,0.995886,0.000000,0.869128
LINE758,0.669936,2.635511,12.201328,2.989702,0.655995,-1.562942
LINE759,36.435330,-1.183609,2.002395,0.527874,1.967698,-1.562507
LINE760,0.671308,2.636995,0.667915,0.528185,11.881185,0.899271
LINE761,23.771832,-1.215339,23.768656,2.958105,2.625852,-1.562950
LINE762,1.344930,2.639412,1.341430,0.530177,24.248682,0.900325
LINE763,0.672030,2.639024,12.075234,2.991421,0.656536,-1.562693
LINE764,24.846473,-1.181888,1.338403,0.528668,1.312303,-1.562449
LINE765,0.000000,0.972504,0.000000,0.972504,0.000000,0.489765
LINE766,0.669936,2.635511,12.201328,2.989702,0.655995,-1.562942
LINE767,36.435330,-1.183609,2.002395,0.527874,1.967698,-1.562507
LINE768,0.671308,2.636995,0.667915,0.528185,11.881185,0.899271
LINE769,23.771832,-1.215339,23.768656,2.958105,2.625852,-1.562950
LINE770,0.672463,2.639411,0.670713,0.530177,12.174053,0.900482
LINE771,0.672467,2.639412,0.670717,0.530176,12.074629,0.900166
LINE772,0.672030,2.639024,12.075234,2.991421,0.656536,-1.562693
LINE773,24.846473,-1.181888,1.338403,0.528668,1.312303,-1.562449
LINE774,0.000000,2.562926,0.000000,0.553999,0.000000,0.655469
LINE775,0.669936,2.635511,12.201328,2.989702,0.655995,-1.562942
LINE776,36.435330,-1.183609,2.002395,0.527874,1.967698,-1.562507
LINE777,0.671308,2.636995,0.667915,0.528185,11.881185,0.899271
LINE778,23.771832,-1.215339,23.768656,2.958105,2.625852,-1.562950
LINE779,0.672463,2.639411,0.670713,0.530177,12.174053,0.900482
LINE780,0.672467,2.639412,0.670717,0.530176,12.074629,0.900166
LINE781,0.672030,2.639024,12.075234,2.991421,0.656536,-1.562693
LINE782,24.846473,-1.181888,1.338403,0.528668,1.312303,-1.562449
LINE783,0.000000,2.221574,0.000000,0.872715,0.000000,-0.730594
LINE784,0.669936,2.635511,12.201328,2.989702,0.655995,-1.562942
LINE785,36.435330,-1.183609,2.002395,0.527874,1.967698,-1.562507
LINE786,23.771832,-1.215339,23.768656,2.958105,2.625852,-1.562950
LINE787,0.672467,2.639412,0.670717,0.530176,12.074629,0.900166
LINE788,0.672030,2.639024,12.075234,2.991421,0.656536,-1.562693
LINE789,24.846473,-1.181888,1.338403,0.528668,1.312303,-1.562449
LINE790,0.000000,1.568380,0.000000,0.261752,0.000000,0.375525
LINE791,24.301499,-1.183594,1.334930,0.527874,1.311799,-1.562507
LINE792,12.133831,-1.183639,0.667465,0.527874,0.655899,-1.562507
LINE793,23.771832,-1.215339,23.768656,2.958105,2.625852,-1.562950
LINE794,0.672467,2.639412,0.670717,0.530176,12.074629,0.900166
LINE795,0.672030,2.639024,12.075234,2.991421,0.656536,-1.562693
LINE796,24.846473,-1.181888,1.338403,0.528668,1.312303,-1.562449
LINE797,0.000000,1.660174,0.000000,0.214396,0.000000,0.367575
LINE798,24.301499,-1.183594,1.334930,0.527874,1.311799,-1.562507
LINE799,12.133831,-1.183639,0.667465,0.527874,0.655899,-1.562507
LINE800,24.803490,-1.179793,1.343384,0.530313,1.312910,-1.562679
LINE801,1.345073,2.640874,24.799693,2.993578,1.312942,-1.563222
LINE802,0.672467,2.639412,0.670717,0.530176,12.074629,0.900166
LINE803,0.672030,2.639024,12.075234,2.991421,0.656536,-1.562693
LINE804,24.846473,-1.181888,1.338403,0.528668,1.312303,-1.562449
LINE805,0.000000,1.274952,0.000000,0.554168,0.000000,-0.291057
LINE806,24.301499,-1.183594,1.334930,0.527874,1.311799,-1.562507
LINE807,12.133831,-1.183639,0.667465,0.527874,0.655899,-1.562507
LINE808,24.803490,-1.179793,1.343384,0.530313,1.312910,-1.562679
LINE809,1.345073,2.640874,24.799693,2.993578,1.312942,-1.563222
LINE810,0.000000,4.474775,0.000000,4.474775,0.000000,0.968377
LINE811,0.672467,2.639412,0.670717,0.530176,12.074629,0.900166
LINE812,0.672030,2.639024,12.075234,2.991421,0.656536,-1.562693
LINE813,24.846473,-1.181888,1.338403,0.528668,1.312303,-1.562449
LINE814,0.000000,1.221380,0.000000,0.327796,0.000000,1.591720
LINE815,24.301499,-1.183594,1.334930,0.527874,1.311799,-1.562507
LINE816,12.133831,-1.183639,0.667465,0.527874,0.655899,-1.562507
LINE817,24.803490,-1.179793,1.343384,0.530313,1.312910,-1.562679
LINE818,1.345073,2.640874,24.799693,2.993578,1.312942,-1.563222
LINE819,0.000000,0.328844,0.000000,0.908621,0.000000,2.040665
LINE820,0.672467,2.639412,0.670717,0.530176,12.074629,0.900166
LINE821,24.846473,-1.181888,1.338403,0.528668,1.312303,-1.562449
LINE822,0.000000,-0.161557,0.000000,0.401054,0.000000,1.652731
LINE823,24.301499,-1.183594,1.334930,0.527874,1.311799,-1.562507
LINE824,24.803490,-1.179793,1.343384,0.530313,1.312910,-1.562679
LINE825,1.345073,2.640874,24.799693,2.993578,1.312942,-1.563222
LINE826,0.000000,0.928499,0.000000,0.928499,0.000000,1.500924
LINE827,0.672467,2.639412,0.670717,0.530176,12.074629,0.900166
LINE828,24.846473,-1.181888,1.338403,0.528668,1.312303,-1.562449
LINE829,0.000000,2.116055,0.000000,1.132688,0.000000,1.652874
LINE830,24.301499,-1.183594,1.334930,0.527874,1.311799,-1.562507
LINE831,24.803490,-1.179793,1.343384,0.530313,1.312910,-1.562679
LINE832,1.345073,2.640874,24.799693,2.993578,1.312942,-1.563222
LINE833,0.000000,-0.905419,0.000000,-0.905419,0.000000,1.802433
LINE834,0.672467,2.639412,0.670717,0.530176,12.074629,0.900166
LINE835,24.846473,-1.181888,1.338403,0.528668,1.312303,-1.562449
LINE836,24.301499,-1.183594,1.334930,0.527874,1.311799,-1.562507
LINE837,24.803490,-1.179793,1.343384,0.530313,1.312910,-1.562679
LINE838,1.345073,2.640874,24.799693,2.993578,1.312942,-1.563222
LINE839,0.000000,3.424291,0.000000,0.313994,0.000000,4.567502
LINE840,24.846473,-1.181888,1.338403,0.528668,1.312303,-1.562449
LINE841,24.301499,-1.183594,1.334930,0.527874,1.311799,-1.562507
LINE842,24.803490,-1.179793,1.343384,0.530313,1.312910,-1.562679
LINE843,1.345073,2.640874,24.799693,2.993578,1.312942,-1.563222
LINE844,0.000000,-0.569737,0.000000,0.742483,0.000000,0.753335
LINE845,0.000000,3.035683,0.000000,3.035683,0.000000,-0.277577
LINE846,24.846473,-1.181888,1.338403,0.528668,1.312303,-1.562449
LINE847,24.301499,-1.183594,1.334930,0.527874,1.311799,-1.562507
LINE848,24.803490,-1.179793,1.343384,0.530313,1.312910,-1.562679
LINE849,1.345073,2.640874,24.799693,2.993578,1.312942,-1.563222
LINE850,0.000000,-0.504968,0.000000,0.457211,0.000000,0.718569
LINE851,0.000000,2.090048,0.000000,-0.309295,0.000000,-1.497194
LINE852,24.846473,-1.181888,1.338403,0.528668,1.312303,-1.562449
LINE853,24.301499,-1.183594,1.334930,0.527874,1.311799,-1.562507
LINE854,24.803490,-1.179793,1.343384,0.530313,1.312910,-1.562679
LINE855,1.345073,2.640874,24.799693,2.993578,1.312942,-1.563222
LINE856,0.000000,-0.483032,0.000000,0.311714,0.000000,0.851215
LINE857,0.000000,4.600009,0.000000,-0.231661,0.000000,1.233354
LINE858,24.846473,-1.181888,1.338403,0.528668,1.312303,-1.562449
LINE859,12.219769,-1.183478,0.667470,0.527876,0.655905,-1.562508
LINE860,12.081730,-1.183711,0.667460,0.527873,0.655894,-1.562506
LINE861,24.803490,-1.179793,1.343384,0.530313,1.312910,-1.562679
LINE862,1.345073,2.640874,24.799693,2.993578,1.312942,-1.563222
LINE863,0.000000,-0.416592,0.000000,0.624608,0.000000,1.000914
LINE864,0.000000,-0.847027,0.000000,3.451896,0.000000,4.191246
LINE865,24.846473,-1.181888,1.338403,0.528668,1.312303,-1.562449
LINE866,24.803490,-1.179793,1.343384,0.530313,1.312910,-1.562679
LINE867,1.345073,2.640874,24.799693,2.993578,1.312942,-1.563222
LINE868,0.000000,-0.259007,0.000000,0.475150,0.000000,0.958739
LINE869,0.000000,1.631359,0.000000,4.458672,0.000000,1.343527
LINE870,24.846473,-1.181888,1.338403,0.528668,1.312303,-1.562449
LINE871,24.803490,-1.179793,1.343384,0.530313,1.312910,-1.562679
LINE872,0.672534,2.640874,12.287655,2.993309,0.656469,-1.563222
LINE873,0.672539,2.640873,12.512039,2.993842,0.656473,-1.563222
LINE874,0.000000,0.024470,0.000000,0.325077,0.000000,0.562630
LINE875,0.000000,3.083076,0.000000,0.480897,0.000000,1.363468
LINE876,24.846473,-1.181888,1.338403,0.528668,1.312303,-1.562449
LINE877,24.803490,-1.179793,1.343384,0.530313,1.312910,-1.562679
LINE878,0.672534,2.640874,12.287655,2.993309,0.656469,-1.563222
LINE879,0.672539,2.640873,12.512039,2.993842,0.656473,-1.563222
LINE880,0.000000,1.601538,0.000000,1.499215,0.000000,-1.470276
LINE881,0.000000,0.893405,0.000000,2.388262,0.000000,4.639796
LINE882,24.846473,-1.181888,1.338403,0.528668,1.312303,-1.562449
LINE883,24.803490,-1.179793,1.343384,0.530313,1.312910,-1.562679
LINE884,0.672534,2.640874,12.287655,2.993309,0.656469,-1.563222
LINE885,0.672539,2.640873,12.512039,2.993842,0.656473,-1.563222
LINE886,24.846473,-1.181888,1.338403,0.528668,1.312303,-1.562449
LINE887,12.400819,-1.179778,0.671692,0.530299,0.656447,-1.562674
LINE888,12.402671,-1.179809,0.671691,0.530327,0.656463,-1.562684
LINE889,0.672534,2.640874,12.287655,2.993309,0.656469,-1.563222
LINE890,24.846473,-1.181888,1.338403,0.528668,1.312303,-1.562449
LINE891,12.400819,-1.179778,0.671692,0.530299,0.656447,-1.562674
LINE892,12.402671,-1.179809,0.671691,0.530327,0.656463,-1.562684
LINE893,0.672534,2.640874,12.287655,2.993309,0.656469,-1.563222
LINE894,12.625161,-1.181259,0.669195,0.528666,0.656143,-1.562447
LINE895,12.221317,-1.182537,0.669208,0.528670,0.656160,-1.562451
LINE896,12.400819,-1.179778,0.671692,0.530299,0.656447,-1.562674
LINE897,12.402671,-1.179809,0.671691,0.530327,0.656463,-1.562684
LINE898,0.672534,2.640874,12.287655,2.993309,0.656469,-1.563222
LINE899,12.625161,-1.181259,0.669195,0.528666,0.656143,-1.562447
LINE900,12.400819,-1.179778,0.671692,0.530299,0.656447,-1.562674
LINE901,12.400819,-1.179778,0.671692,0.530299,0.656447,-1.562674
LINE902,12.400819,-1.179778,0.671692,0.530299,0.656447,-1.562674
LINE903,12.400819,-1.179778,0.671692,0.530299,0.656447,-1.562674
LINE904,12.400819,-1.179778,0.671692,0.530299,0.656447,-1.562674
LINE905,12.400819,-1.179778,0.671692,0.530299,0.656447,-1.562674
